Circuit: * C:\Users\names\Documents\GitHub\ELEN100Project2\LTSpice Schematic OpAmp2.asc

Fatal Error: Don't know how to detect this circuit's steady state.
