Circuit: * C:\Users\names\Documents\GitHub\ELEN100Project2\LTSpice Schematic OpAmp6.asc

Limiting fall time of source v1 to 0.3
Direct Newton iteration for .op point succeeded.

Date: Sun Mar 18 15:44:09 2018
Total elapsed time: 0.409 seconds.

tnom = 27
temp = 27
method = modified trap
totiter = 205328
traniter = 205324
tranpoints = 102663
accept = 102661
rejected = 2
matrix size = 11
fillins = 3
solver = Normal
Matrix Compiler1: 572 bytes object code size  0.2/0.0/[0.0]
Matrix Compiler2:      77 opcodes  0.1/[0.0]/0.1

