Circuit: * C:\Users\names\Documents\GitHub\ELEN100Project2\LTSpice Schematic OpAmp2.asc

Limiting fall time of source v1 to 0.3
Direct Newton iteration for .op point succeeded.

Date: Sun Mar 18 15:40:12 2018
Total elapsed time: 4.635 seconds.

tnom = 27
temp = 27
method = modified trap
totiter = 400100
traniter = 400096
tranpoints = 200049
accept = 200042
rejected = 7
matrix size = 11
fillins = 3
solver = Normal
Matrix Compiler1: 572 bytes object code size  0.2/0.2/[0.1]
Matrix Compiler2: 1003 bytes object code size  0.2/0.1/[0.1]

