Circuit: * E:\SCU\2016 Winter\ELEN 100L\Projects\Project 2\Project_2_Tutorial_Solution\Project_2_Transient_Tutorial.asc

Per .tran options, skipping operating point for transient analysis.

Date: Mon Feb 22 16:47:20 2016
Total elapsed time: 26.418 seconds.

tnom = 27
temp = 27
method = modified trap
totiter = 10000112
traniter = 10000112
tranpoints = 5000057
accept = 5000057
rejected = 0
matrix size = 4
fillins = 0
solver = Normal
Matrix Compiler1: 100 bytes object code size  0.1/0.0/[0.0]
Matrix Compiler2:      21 opcodes  0.1/[0.0]/0.0


